[General]
cmdenv-express-mode = true
network = Main_Network
sim-time-limit = 650s



##########################################################
#			Simulation parameters                        #
##########################################################
tkenv-default-config = 
Main_Network.**.coreDebug = true
Main_Network.playgroundSizeX = 3000m
Main_Network.playgroundSizeY = 800m
Main_Network.playgroundSizeZ = 800m
Main_Network.numNodes = 4

##########################################################
#			WorldUtility parameters                      #
##########################################################
Main_Network.world.useTorus = false

##########################################################
#			         channel parameters                  #
Main_Network.connectionManager.sendDirect = true
Main_Network.connectionManager.pMax = 100mW
Main_Network.connectionManager.sat = -94dBm
Main_Network.connectionManager.alpha = 2.0
Main_Network.connectionManager.carrierFrequency = 2.412e+9Hz


################ PhyLayer parameters #####################
Main_Network.node[*].nic.phy.usePropagationDelay = true
Main_Network.node[*].nic.phy.thermalNoise = -100dBm
Main_Network.node[*].nic.phy.useThermalNoise = true
        
Main_Network.node[*].nic.phy.analogueModels = xmldoc("config.xml")
#Main_Network.node[*].nic.phy.decider = xmldoc("config.xml")

Main_Network.node[*].nic.phy.timeRXToTX = 0.00021s
Main_Network.node[*].nic.phy.timeRXToSleep = 0.000031s

Main_Network.node[*].nic.phy.timeTXToRX = 0.00012s
Main_Network.node[*].nic.phy.timeTXToSleep = 0.000032s

Main_Network.node[*].nic.phy.timeSleepToRX = 0.000102s
Main_Network.node[*].nic.phy.timeSleepToTX = 0.000203s

Main_Network.node[*].nic.phy.sensitivity = -94dBm
Main_Network.node[*].nic.phy.maxTXPower = 100.0mW

Main_Network.node[*].nic.phy.initialRadioState = 0

################ MAC layer parameters ####################
Main_Network.node[*].nic.mac.rxSetupTime = 0s
Main_Network.node[*].nic.mac.useMACAcks = false
Main_Network.node[*].nic.mac.queueLength = 5
Main_Network.node[*].nic.mac.headerLength = 24bit
#Main_Network.node[*].nic.mac.bitrate = 15360bps
Main_Network.node[*].nic.mac.contentionWindow = 20
Main_Network.node[*].nic.mac.txPower = 100mW  # [mW]
Main_Network.node[*].nic.mac.aTurnaroundTime = 0.000215s

################ NETW layer parameters ####################
Main_Network.node[*].networkType = "BaseNetwLayer"
Main_Network.node[*].netwl.stats = false
Main_Network.node[*].netwl.headerLength = 32bit

################ Mobility parameters #####################
**.mobility.initFromDisplayString = false

#Intervalo de actualización de la posición (llamado a move)
Main_Network.node[*].mobility.updateInterval = 1 s
Main_Network.node[*].mobility.initFromDisplayString = false
Main_Network.node[*].mobility.angle = 0deg
#Rectangle Mobility
#Main_Network.node[0].mobility.startPosition = 3.4
#Main_Network.node[1].mobility.startPosition = 3.395
#Main_Network.node[2].mobility.startPosition = 3.390
#Main_Network.node[3].mobility.startPosition = 3.385

Main_Network.node[*].mobility.initialY = 400 m
Main_Network.node[*].mobility.initialZ = 0 m
Main_Network.node[0].mobility.initialX = 40 m
Main_Network.node[1].mobility.initialX = 35 m
Main_Network.node[2].mobility.initialX = 30 m
Main_Network.node[3].mobility.initialX = 25 m


#Other parameters
#Distancia a la meta
#Tiempo objetivo para llegar a la meta
Main_Network.node[*].mobility.totalTime = 586 s
#Variabilidad de la velocidad objetivo del lider
Main_Network.node[*].mobility.variability = 0.1
Main_Network.node[*].mobility.acceleration = 0
Main_Network.node[0].mobility.leader = true
Main_Network.node[*].mobility.leader = false
#Main_Network.node[2].mobility.leader = false
#Main_Network.node[3].mobility.leader = false
Main_Network.node[*].totalDist = 2400 m


################ Platoon parameters ########################

#Alpha values of CACC
Main_Network.node[*].appl.alpha1 = 0.5
Main_Network.node[*].appl.alpha2 = 0.5
Main_Network.node[*].appl.alpha3 = 0.3
Main_Network.node[*].appl.alpha4 = 0.1
Main_Network.node[*].appl.alpha5 = 0.04

#Alpha values of CACC with lag
Main_Network.node[*].appl.alphaLag = 0.8
Main_Network.node[*].appl.mean_error = 0.4125
Main_Network.node[*].appl.std_error = 2.39
Main_Network.node[*].appl.mean_vel_obj = 14.2484

#Value for spacing error
Main_Network.node[*].appl.lenghtVehicle = 2
Main_Network.node[*].appl.spacing = 2

#Interval for sending position updates
Main_Network.node[*].appl.beaconInterval = 0.1 s

#Interval for running the platton 
Main_Network.node[*].appl.platoonInterval = 1 s



################ Application parameters #####################
Main_Network.node[*].applicationType = "CustomAppLayer"
Main_Network.node[*].appl.debug = false
Main_Network.node[*].appl.headerLength = 512bit
Main_Network.node[*].appl.burstSize = 1 

############### Battery parameters ############################
Main_Network.node[*].battery.nominal = 99999mAh
Main_Network.node[*].battery.capacity = 99999mAh
Main_Network.node[*].battery.voltage = 3.3V
Main_Network.node[*].battery.resolution = 10s
Main_Network.node[*].battery.publishDelta = 0.1
Main_Network.node[*].battery.publishTime = 0
Main_Network.node[*].battery.numDevices = 1  # only the PHY module uses energy from the battery
Main_Network.node[*].batteryStats.debug = false
Main_Network.node[*].batteryStats.detail = false
Main_Network.node[*].batteryStats.timeSeries = false

############## Beaconing parameters ###########################
Main_Network.node[*].appl.beaconing = false

##### Configurations ######

#Escenarios Platoon
[Config Platoon-TotalDistanceVariaton]
Main_Network.node[*].totalDist = ${1600 m, 1800 m, 2000 m, 2200 m, 2400 m}

[Config Platoon-TotalTimeVariaton]
Main_Network.node[*].mobility.totalTime = ${506 s, 526 s, 546 s, 566 s, 586 s}

[Config Platoon-DeviationVobjVariaton]
Main_Network.node[*].mobility.variability = ${0, 0.05, 0.1, 0.15, 0.2, 0.25, 0.3}

[Config Platoon-DesiredSpacingVariation2m]
Main_Network.node[*].appl.spacing = 2
Main_Network.node[0].mobility.initialX = 40 m
Main_Network.node[1].mobility.initialX = 35 m
Main_Network.node[2].mobility.initialX = 30 m
Main_Network.node[3].mobility.initialX = 25 m

[Config Platoon-DesiredSpacingVariation5m]
Main_Network.node[*].appl.spacing = 5
Main_Network.node[0].mobility.initialX = 40 m
Main_Network.node[1].mobility.initialX = 30 m
Main_Network.node[2].mobility.initialX = 20 m
Main_Network.node[3].mobility.initialX = 10 m

[Config Platoon-DesiredSpacingVariation10m]
Main_Network.node[*].appl.spacing = 10
Main_Network.node[0].mobility.initialX = 45 m
Main_Network.node[1].mobility.initialX = 30 m
Main_Network.node[2].mobility.initialX = 15 m
Main_Network.node[3].mobility.initialX = 0 m

[Config Platoon-DesiredSpacingVariation15m]
Main_Network.node[*].appl.spacing = 15
Main_Network.node[0].mobility.initialX = 60 m
Main_Network.node[1].mobility.initialX = 40 m
Main_Network.node[2].mobility.initialX = 20 m
Main_Network.node[3].mobility.initialX = 0 m  

[Config Platoon-DesiredSpacingVariation20m]
Main_Network.node[*].appl.spacing = 20
Main_Network.node[0].mobility.initialX = 75 m
Main_Network.node[1].mobility.initialX = 50 m
Main_Network.node[2].mobility.initialX = 25 m
Main_Network.node[3].mobility.initialX = 0 m

#Escenarios Beaconing

[Config Beaconing-PowerVariation1mW]
Main_Network.node[0].mobility.leader = true
Main_Network.node[1].mobility.leader = false
Main_Network.node[2].mobility.leader = false
Main_Network.node[3].mobility.leader = false
Main_Network.node[4].mobility.leader = false
Main_Network.node[5].mobility.leader = false
Main_Network.node[6].mobility.leader = false
Main_Network.node[7].mobility.leader = false
Main_Network.node[8].mobility.leader = false
Main_Network.node[9].mobility.leader = false
Main_Network.node[10].mobility.leader = false
Main_Network.node[11].mobility.leader = false
Main_Network.node[12].mobility.leader = false
Main_Network.node[13].mobility.leader = false
Main_Network.node[14].mobility.leader = false
Main_Network.node[*].appl.beaconing = true
Main_Network.node[*].appl.spacing = 5
Main_Network.node[0].mobility.initialX = 70 m
Main_Network.node[1].mobility.initialX = 65 m
Main_Network.node[2].mobility.initialX = 60 m
Main_Network.node[3].mobility.initialX = 55 m
Main_Network.node[4].mobility.initialX = 50 m
Main_Network.node[5].mobility.initialX = 45 m
Main_Network.node[6].mobility.initialX = 40 m
Main_Network.node[7].mobility.initialX = 35 m
Main_Network.node[8].mobility.initialX = 30 m
Main_Network.node[9].mobility.initialX = 25 m
Main_Network.node[10].mobility.initialX = 20 m
Main_Network.node[11].mobility.initialX = 15 m
Main_Network.node[12].mobility.initialX = 10 m
Main_Network.node[13].mobility.initialX = 5 m
Main_Network.node[14].mobility.initialX = 0 m
Main_Network.connectionManager.pMax = 1mW
Main_Network.node[*].nic.phy.maxTXPower = 1mW
Main_Network.node[*].nic.mac.txPower = 1mW 
Main_Network.numNodes = 15

[Config Beaconing-PowerVariation2mW]
Main_Network.node[0].mobility.leader = true
Main_Network.node[1].mobility.leader = false
Main_Network.node[2].mobility.leader = false
Main_Network.node[3].mobility.leader = false
Main_Network.node[4].mobility.leader = false
Main_Network.node[5].mobility.leader = false
Main_Network.node[6].mobility.leader = false
Main_Network.node[7].mobility.leader = false
Main_Network.node[8].mobility.leader = false
Main_Network.node[9].mobility.leader = false
Main_Network.node[10].mobility.leader = false
Main_Network.node[11].mobility.leader = false
Main_Network.node[12].mobility.leader = false
Main_Network.node[13].mobility.leader = false
Main_Network.node[14].mobility.leader = false
Main_Network.node[15].mobility.leader = false
Main_Network.node[16].mobility.leader = false
Main_Network.node[17].mobility.leader = false
Main_Network.node[18].mobility.leader = false
Main_Network.node[19].mobility.leader = false
Main_Network.node[*].appl.beaconing = true
Main_Network.node[*].appl.spacing = 5
Main_Network.node[0].mobility.initialX = 95 m
Main_Network.node[1].mobility.initialX = 90 m
Main_Network.node[2].mobility.initialX = 85 m
Main_Network.node[3].mobility.initialX = 80 m
Main_Network.node[4].mobility.initialX = 75 m
Main_Network.node[5].mobility.initialX = 70 m
Main_Network.node[6].mobility.initialX = 65 m
Main_Network.node[7].mobility.initialX = 60 m
Main_Network.node[8].mobility.initialX = 55 m
Main_Network.node[9].mobility.initialX = 50 m
Main_Network.node[10].mobility.initialX = 45 m
Main_Network.node[11].mobility.initialX = 40 m
Main_Network.node[12].mobility.initialX = 35 m
Main_Network.node[13].mobility.initialX = 30 m
Main_Network.node[14].mobility.initialX = 25 m
Main_Network.node[15].mobility.initialX = 20 m
Main_Network.node[16].mobility.initialX = 15 m
Main_Network.node[17].mobility.initialX = 10 m
Main_Network.node[18].mobility.initialX = 5 m
Main_Network.node[19].mobility.initialX = 0 m
Main_Network.connectionManager.pMax = 2mW
Main_Network.node[*].nic.phy.maxTXPower = 2mW
Main_Network.node[*].nic.mac.txPower = 2mW 
Main_Network.numNodes = 20

[Config Beaconing-PowerVariation10mW]
Main_Network.node[0].mobility.leader = true
Main_Network.node[1].mobility.leader = false
Main_Network.node[2].mobility.leader = false
Main_Network.node[3].mobility.leader = false
Main_Network.node[4].mobility.leader = false
Main_Network.node[5].mobility.leader = false
Main_Network.node[6].mobility.leader = false
Main_Network.node[7].mobility.leader = false
Main_Network.node[8].mobility.leader = false
Main_Network.node[9].mobility.leader = false
Main_Network.node[10].mobility.leader = false
Main_Network.node[11].mobility.leader = false
Main_Network.node[12].mobility.leader = false
Main_Network.node[13].mobility.leader = false
Main_Network.node[14].mobility.leader = false
Main_Network.node[15].mobility.leader = false
Main_Network.node[16].mobility.leader = false
Main_Network.node[17].mobility.leader = false
Main_Network.node[18].mobility.leader = false
Main_Network.node[19].mobility.leader = false
Main_Network.node[20].mobility.leader = false
Main_Network.node[21].mobility.leader = false
Main_Network.node[22].mobility.leader = false
Main_Network.node[23].mobility.leader = false
Main_Network.node[24].mobility.leader = false
Main_Network.node[25].mobility.leader = false
Main_Network.node[26].mobility.leader = false
Main_Network.node[27].mobility.leader = false
Main_Network.node[28].mobility.leader = false
Main_Network.node[29].mobility.leader = false
Main_Network.node[*].appl.beaconing = true
Main_Network.node[*].appl.spacing = 5
Main_Network.node[0].mobility.initialX = 145 m
Main_Network.node[1].mobility.initialX = 140 m
Main_Network.node[2].mobility.initialX = 135 m
Main_Network.node[3].mobility.initialX = 130 m
Main_Network.node[4].mobility.initialX = 125 m
Main_Network.node[5].mobility.initialX = 120 m
Main_Network.node[6].mobility.initialX = 115 m
Main_Network.node[7].mobility.initialX = 110 m
Main_Network.node[8].mobility.initialX = 105 m
Main_Network.node[9].mobility.initialX = 100 m
Main_Network.node[10].mobility.initialX = 95 m
Main_Network.node[11].mobility.initialX = 90 m
Main_Network.node[12].mobility.initialX = 85 m
Main_Network.node[13].mobility.initialX = 80 m
Main_Network.node[14].mobility.initialX = 75 m
Main_Network.node[15].mobility.initialX = 70 m
Main_Network.node[16].mobility.initialX = 65 m
Main_Network.node[17].mobility.initialX = 60 m
Main_Network.node[18].mobility.initialX = 55 m
Main_Network.node[19].mobility.initialX = 50 m
Main_Network.node[20].mobility.initialX = 45 m
Main_Network.node[21].mobility.initialX = 40 m
Main_Network.node[22].mobility.initialX = 35 m
Main_Network.node[23].mobility.initialX = 30 m
Main_Network.node[24].mobility.initialX = 25 m
Main_Network.node[25].mobility.initialX = 20 m
Main_Network.node[26].mobility.initialX = 15 m
Main_Network.node[27].mobility.initialX = 10 m
Main_Network.node[28].mobility.initialX = 5 m
Main_Network.node[29].mobility.initialX = 0 m
Main_Network.connectionManager.pMax = 10mW
Main_Network.node[*].nic.phy.maxTXPower = 10mW
Main_Network.node[*].nic.mac.txPower = 10mW 
Main_Network.numNodes = 30

[Config Beaconing-DeviationVobjVariaton]
Main_Network.node[*].mobility.variability = ${0, 0.05, 0.1, 0.15, 0.2, 0.25, 0.3}
Main_Network.node[0].mobility.leader = true
Main_Network.node[1].mobility.leader = false
Main_Network.node[2].mobility.leader = false
Main_Network.node[3].mobility.leader = false
Main_Network.node[4].mobility.leader = false
Main_Network.node[5].mobility.leader = false
Main_Network.node[6].mobility.leader = false
Main_Network.node[7].mobility.leader = false
Main_Network.node[8].mobility.leader = false
Main_Network.node[9].mobility.leader = false
Main_Network.node[10].mobility.leader = false
Main_Network.node[11].mobility.leader = false
Main_Network.node[12].mobility.leader = false
Main_Network.node[13].mobility.leader = false
Main_Network.node[14].mobility.leader = false
Main_Network.node[*].appl.beaconing = true
Main_Network.node[*].appl.spacing = 5
Main_Network.node[0].mobility.initialX = 70 m
Main_Network.node[1].mobility.initialX = 65 m
Main_Network.node[2].mobility.initialX = 60 m
Main_Network.node[3].mobility.initialX = 55 m
Main_Network.node[4].mobility.initialX = 50 m
Main_Network.node[5].mobility.initialX = 45 m
Main_Network.node[6].mobility.initialX = 40 m
Main_Network.node[7].mobility.initialX = 35 m
Main_Network.node[8].mobility.initialX = 30 m
Main_Network.node[9].mobility.initialX = 25 m
Main_Network.node[10].mobility.initialX = 20 m
Main_Network.node[11].mobility.initialX = 15 m
Main_Network.node[12].mobility.initialX = 10 m
Main_Network.node[13].mobility.initialX = 5 m
Main_Network.node[14].mobility.initialX = 0 m
Main_Network.connectionManager.pMax = 1mW
Main_Network.node[*].nic.phy.maxTXPower = 1mW
Main_Network.node[*].nic.mac.txPower = 1mW 
Main_Network.numNodes = 15

[Config Beaconing-DesiredSpacingVariation2m]
Main_Network.node[*].appl.spacing = 2
Main_Network.node[0].mobility.leader = true
Main_Network.node[1].mobility.leader = false
Main_Network.node[2].mobility.leader = false
Main_Network.node[3].mobility.leader = false
Main_Network.node[4].mobility.leader = false
Main_Network.node[5].mobility.leader = false
Main_Network.node[6].mobility.leader = false
Main_Network.node[7].mobility.leader = false
Main_Network.node[8].mobility.leader = false
Main_Network.node[9].mobility.leader = false
Main_Network.node[10].mobility.leader = false
Main_Network.node[11].mobility.leader = false
Main_Network.node[12].mobility.leader = false
Main_Network.node[13].mobility.leader = false
Main_Network.node[14].mobility.leader = false
Main_Network.node[*].appl.beaconing = true
Main_Network.node[0].mobility.initialX = 70 m
Main_Network.node[1].mobility.initialX = 65 m
Main_Network.node[2].mobility.initialX = 60 m
Main_Network.node[3].mobility.initialX = 55 m
Main_Network.node[4].mobility.initialX = 50 m
Main_Network.node[5].mobility.initialX = 45 m
Main_Network.node[6].mobility.initialX = 40 m
Main_Network.node[7].mobility.initialX = 35 m
Main_Network.node[8].mobility.initialX = 30 m
Main_Network.node[9].mobility.initialX = 25 m
Main_Network.node[10].mobility.initialX = 20 m
Main_Network.node[11].mobility.initialX = 15 m
Main_Network.node[12].mobility.initialX = 10 m
Main_Network.node[13].mobility.initialX = 5 m
Main_Network.node[14].mobility.initialX = 0 m
Main_Network.connectionManager.pMax = 1mW
Main_Network.node[*].nic.phy.maxTXPower = 1mW
Main_Network.node[*].nic.mac.txPower = 1mW 
Main_Network.numNodes = 15

[Config Beaconing-DesiredSpacingVariation5m]
Main_Network.node[*].appl.spacing = 5
Main_Network.node[0].mobility.leader = true
Main_Network.node[1].mobility.leader = false
Main_Network.node[2].mobility.leader = false
Main_Network.node[3].mobility.leader = false
Main_Network.node[4].mobility.leader = false
Main_Network.node[5].mobility.leader = false
Main_Network.node[6].mobility.leader = false
Main_Network.node[7].mobility.leader = false
Main_Network.node[8].mobility.leader = false
Main_Network.node[9].mobility.leader = false
Main_Network.node[10].mobility.leader = false
Main_Network.node[11].mobility.leader = false
Main_Network.node[12].mobility.leader = false
Main_Network.node[13].mobility.leader = false
Main_Network.node[14].mobility.leader = false
Main_Network.node[*].appl.beaconing = true
Main_Network.node[0].mobility.initialX = 150 m
Main_Network.node[1].mobility.initialX = 130 m
Main_Network.node[2].mobility.initialX = 120 m
Main_Network.node[3].mobility.initialX = 110 m
Main_Network.node[4].mobility.initialX = 100 m
Main_Network.node[5].mobility.initialX = 90 m
Main_Network.node[6].mobility.initialX = 80 m
Main_Network.node[7].mobility.initialX = 70 m
Main_Network.node[8].mobility.initialX = 60 m
Main_Network.node[9].mobility.initialX = 50 m
Main_Network.node[10].mobility.initialX = 40 m
Main_Network.node[11].mobility.initialX = 30 m
Main_Network.node[12].mobility.initialX = 20 m
Main_Network.node[13].mobility.initialX = 10 m
Main_Network.node[14].mobility.initialX = 0 m
Main_Network.connectionManager.pMax = 1mW
Main_Network.node[*].nic.phy.maxTXPower = 1mW
Main_Network.node[*].nic.mac.txPower = 1mW 
Main_Network.numNodes = 15

#########################################################################################
# Escenarios realizados para estudiar performances del platoon con error humano incluido#
#########################################################################################

# Escenario que estudia el comportamiento del platoon para disitntas velocidades
[Config Prueba-Velocidades]

# Definir valores para el error
Main_Network.node[*].appl.mean_error = ${ mean= -0.1934, -0.1934, 0.214, 0.214, 0.429, 0.429}  #Para velocidades 10,15 y 18 el error humano es diferente 
Main_Network.node[*].appl.std_error = ${ std= 0.432, 0.432, 0.46, 0.46, 0.889, 0.889 ! mean}  
Main_Network.node[*].appl.mean_vel_obj = ${ vel= 2.77, 2.77, 4.1667, 4.1667, 5, 5 ! mean}

# Definir valores de la velocidad segun corresponda para cada iteración 
Main_Network.node[*].mobility.speed = ${speed= 3.3 mps, 3.7 mps, 4.32 mps, 4.63 mps, 5.36 mps , 5.84mps ! mean}       
Main_Network.node[*].mobility.variability = ${varia= 0.012,  0.243, 0.039, 0.097, 0.095, 0.033 ! mean}  #Variabilidad como valor porcentual de la velocidad objetivo
repeat = 10

# Escenario que estudia el comportamiento para 4 nodos con distitna variabilidad
[Config Prueba-noodos4]
Main_Network.node[*].appl.mean_error = 0.214
Main_Network.node[*].appl.std_error = 0.46  
Main_Network.node[*].appl.mean_vel_obj = 4.1667

Main_Network.node[*].mobility.speed = 4.32 mps
Main_Network.node[*].mobility.variability = ${0, 0.05, 0.1, 0.15, 0.2, 0.25, 0.3}
Main_Network.numNodes = 4
repeat = 10

[Config Prueba-noodos5]

Main_Network.node[0].mobility.leader = true
Main_Network.node[1].mobility.leader = false
Main_Network.node[2].mobility.leader = false
Main_Network.node[3].mobility.leader = false
Main_Network.node[4].mobility.leader = false

Main_Network.node[0].mobility.initialX = 20 m
Main_Network.node[1].mobility.initialX = 15 m
Main_Network.node[2].mobility.initialX = 10 m
Main_Network.node[3].mobility.initialX = 5 m
Main_Network.node[4].mobility.initialX = 0 m

Main_Network.node[*].appl.mean_error = 0.214
Main_Network.node[*].appl.std_error = 0.46  
Main_Network.node[*].appl.mean_vel_obj = 4.1667

Main_Network.node[*].mobility.speed = 4.32 mps
Main_Network.node[*].mobility.variability = ${0, 0.05, 0.1, 0.15, 0.2, 0.25, 0.3}
Main_Network.numNodes = 5
repeat = 10

[Config Prueba-noodos6]
Main_Network.node[0].mobility.leader = true
Main_Network.node[1].mobility.leader = false
Main_Network.node[2].mobility.leader = false
Main_Network.node[3].mobility.leader = false
Main_Network.node[4].mobility.leader = false
Main_Network.node[5].mobility.leader = false

Main_Network.node[0].mobility.initialX = 25 m
Main_Network.node[1].mobility.initialX = 20 m
Main_Network.node[2].mobility.initialX = 15 m
Main_Network.node[3].mobility.initialX = 10 m
Main_Network.node[4].mobility.initialX = 5 m
Main_Network.node[5].mobility.initialX = 0 m

Main_Network.node[*].appl.mean_error = 0.214
Main_Network.node[*].appl.std_error = 0.46  
Main_Network.node[*].appl.mean_vel_obj = 4.1667

Main_Network.node[*].mobility.speed = 4.32 mps
Main_Network.node[*].mobility.variability = ${0, 0.05, 0.1, 0.15, 0.2, 0.25, 0.3}
Main_Network.numNodes = 6
repeat = 10

[Config Prueba-noodos7]

Main_Network.node[0].mobility.leader = true
Main_Network.node[1].mobility.leader = false
Main_Network.node[2].mobility.leader = false
Main_Network.node[3].mobility.leader = false
Main_Network.node[4].mobility.leader = false
Main_Network.node[5].mobility.leader = false
Main_Network.node[6].mobility.leader = false


Main_Network.node[0].mobility.initialX = 30 m
Main_Network.node[1].mobility.initialX = 25 m
Main_Network.node[2].mobility.initialX = 20 m
Main_Network.node[3].mobility.initialX = 15 m
Main_Network.node[4].mobility.initialX = 10 m
Main_Network.node[5].mobility.initialX = 5 m
Main_Network.node[6].mobility.initialX = 0 m

Main_Network.node[*].appl.mean_error = 0.214
Main_Network.node[*].appl.std_error = 0.46  
Main_Network.node[*].appl.mean_vel_obj = 4.1667

Main_Network.node[*].mobility.speed = 4.32 mps
Main_Network.node[*].mobility.variability = ${0, 0.05, 0.1, 0.15, 0.2, 0.25, 0.3}
Main_Network.numNodes = 7
repeat = 10

[Config Prueba-noodos8]

Main_Network.node[0].mobility.leader = true
Main_Network.node[1].mobility.leader = false
Main_Network.node[2].mobility.leader = false
Main_Network.node[3].mobility.leader = false
Main_Network.node[4].mobility.leader = false
Main_Network.node[5].mobility.leader = false
Main_Network.node[6].mobility.leader = false
Main_Network.node[7].mobility.leader = false

Main_Network.node[0].mobility.initialX = 35 m
Main_Network.node[1].mobility.initialX = 30 m
Main_Network.node[2].mobility.initialX = 25 m
Main_Network.node[3].mobility.initialX = 20 m
Main_Network.node[4].mobility.initialX = 15 m
Main_Network.node[5].mobility.initialX = 10 m
Main_Network.node[6].mobility.initialX = 5 m
Main_Network.node[7].mobility.initialX = 0 m

Main_Network.node[*].appl.mean_error = 0.214
Main_Network.node[*].appl.std_error = 0.46  
Main_Network.node[*].appl.mean_vel_obj = 4.1667

Main_Network.node[*].mobility.speed = 4.32 mps
Main_Network.node[*].mobility.variability = ${0, 0.05, 0.1, 0.15, 0.2, 0.25, 0.3}
Main_Network.numNodes = 8
repeat = 10

[Config Prueba-noodos9]

Main_Network.node[0].mobility.leader = true
Main_Network.node[1].mobility.leader = false
Main_Network.node[2].mobility.leader = false
Main_Network.node[3].mobility.leader = false
Main_Network.node[4].mobility.leader = false
Main_Network.node[5].mobility.leader = false
Main_Network.node[6].mobility.leader = false
Main_Network.node[7].mobility.leader = false
Main_Network.node[8].mobility.leader = false


Main_Network.node[0].mobility.initialX = 40 m
Main_Network.node[1].mobility.initialX = 35 m
Main_Network.node[2].mobility.initialX = 30 m
Main_Network.node[3].mobility.initialX = 25 m
Main_Network.node[4].mobility.initialX = 20 m
Main_Network.node[5].mobility.initialX = 15 m
Main_Network.node[6].mobility.initialX = 10 m
Main_Network.node[7].mobility.initialX = 5 m
Main_Network.node[8].mobility.initialX = 0 m

Main_Network.node[*].appl.mean_error = 0.214
Main_Network.node[*].appl.std_error = 0.46  
Main_Network.node[*].appl.mean_vel_obj = 4.1667

Main_Network.node[*].mobility.speed = 4.32 mps
Main_Network.node[*].mobility.variability = ${0, 0.05, 0.1, 0.15, 0.2, 0.25, 0.3}
Main_Network.numNodes = 9
repeat = 10

[Config Prueba-noodos10]

Main_Network.node[0].mobility.leader = true
Main_Network.node[1].mobility.leader = false
Main_Network.node[2].mobility.leader = false
Main_Network.node[3].mobility.leader = false
Main_Network.node[4].mobility.leader = false
Main_Network.node[5].mobility.leader = false
Main_Network.node[6].mobility.leader = false
Main_Network.node[7].mobility.leader = false
Main_Network.node[8].mobility.leader = false
Main_Network.node[9].mobility.leader = false


Main_Network.node[0].mobility.initialX = 45 m
Main_Network.node[1].mobility.initialX = 40 m
Main_Network.node[2].mobility.initialX = 35 m
Main_Network.node[3].mobility.initialX = 30 m
Main_Network.node[4].mobility.initialX = 25 m
Main_Network.node[5].mobility.initialX = 20 m
Main_Network.node[6].mobility.initialX = 15 m
Main_Network.node[7].mobility.initialX = 10 m
Main_Network.node[8].mobility.initialX = 5 m
Main_Network.node[9].mobility.initialX = 0 m

Main_Network.node[*].appl.mean_error = 0.214
Main_Network.node[*].appl.std_error = 0.46  
Main_Network.node[*].appl.mean_vel_obj = 4.1667

Main_Network.node[*].mobility.speed = 4.32 mps
Main_Network.node[*].mobility.variability = ${0, 0.05, 0.1, 0.15, 0.2, 0.25, 0.3}
Main_Network.numNodes = 10
repeat = 10

# Escenario para estudiar las diferentes aceleraciones luego de modificar la señales en el CustomLinearMobility.cc
[Config Prueba-Aceleracion]

Main_Network.node[*].appl.mean_error = ${0.214}
Main_Network.node[*].appl.std_error = ${0.46}  
Main_Network.node[*].appl.mean_vel_obj = ${4.1667}

Main_Network.node[*].mobility.speed = ${4.32 mps}       
Main_Network.node[*].mobility.variability = ${0.039}  

# Escenario que permite estudiar la mínima cantidad de potencia para realizar el patoon con 8 nodos
[Config Beaconing-PowerVariation-minimun]

Main_Network.node[*].appl.mean_error = ${0.214}
Main_Network.node[*].appl.std_error = ${0.46}  
Main_Network.node[*].appl.mean_vel_obj = ${4.1667}

Main_Network.node[*].mobility.speed = ${4.32 mps}       
Main_Network.node[*].mobility.variability = ${0.039}  

Main_Network.node[0].mobility.leader = true
Main_Network.node[1].mobility.leader = false
Main_Network.node[2].mobility.leader = false
Main_Network.node[3].mobility.leader = false
Main_Network.node[4].mobility.leader = false
Main_Network.node[5].mobility.leader = false
Main_Network.node[6].mobility.leader = false
Main_Network.node[7].mobility.leader = false

Main_Network.node[*].appl.beaconing = true
Main_Network.node[*].appl.spacing = 5
Main_Network.node[0].mobility.initialX = 25m
Main_Network.node[1].mobility.initialX = 20m
Main_Network.node[2].mobility.initialX = 15m
Main_Network.node[3].mobility.initialX = 10m
Main_Network.node[4].mobility.initialX = 5m
Main_Network.node[5].mobility.initialX = 0m
Main_Network.node[6].mobility.initialX = 5m
Main_Network.node[7].mobility.initialX = 0m

Main_Network.connectionManager.pMax = 0.002mW
Main_Network.node[*].nic.phy.maxTXPower = 0.002mW
Main_Network.node[*].nic.mac.txPower = 0.002mW 
Main_Network.numNodes = 8
