[General]
cmdenv-express-mode = true
network = Main_Network
sim-time-limit = 600s



##########################################################
#			Simulation parameters                        #
##########################################################
tkenv-default-config = 
Main_Network.**.coreDebug = true
Main_Network.playgroundSizeX = 3000m
Main_Network.playgroundSizeY = 800m
Main_Network.playgroundSizeZ = 800m
Main_Network.numNodes = 4

##########################################################
#			WorldUtility parameters                      #
##########################################################
Main_Network.world.useTorus = false

##########################################################
#			         channel parameters                  #
Main_Network.connectionManager.sendDirect = true
Main_Network.connectionManager.pMax = 100mW
Main_Network.connectionManager.sat = -94dBm
Main_Network.connectionManager.alpha = 2.0
Main_Network.connectionManager.carrierFrequency = 2.412e+9Hz


################ PhyLayer parameters #####################
Main_Network.node[*].nic.phy.usePropagationDelay = true
Main_Network.node[*].nic.phy.thermalNoise = -100dBm
Main_Network.node[*].nic.phy.useThermalNoise = true
        
Main_Network.node[*].nic.phy.analogueModels = xmldoc("config.xml")
#Main_Network.node[*].nic.phy.decider = xmldoc("config.xml")

Main_Network.node[*].nic.phy.timeRXToTX = 0.00021s
Main_Network.node[*].nic.phy.timeRXToSleep = 0.000031s

Main_Network.node[*].nic.phy.timeTXToRX = 0.00012s
Main_Network.node[*].nic.phy.timeTXToSleep = 0.000032s

Main_Network.node[*].nic.phy.timeSleepToRX = 0.000102s
Main_Network.node[*].nic.phy.timeSleepToTX = 0.000203s

Main_Network.node[*].nic.phy.sensitivity = -94dBm
Main_Network.node[*].nic.phy.maxTXPower = 100.0mW

Main_Network.node[*].nic.phy.initialRadioState = 0

################ MAC layer parameters ####################
Main_Network.node[*].nic.mac.rxSetupTime = 0s
Main_Network.node[*].nic.mac.useMACAcks = false
Main_Network.node[*].nic.mac.queueLength = 5
Main_Network.node[*].nic.mac.headerLength = 24bit
#Main_Network.node[*].nic.mac.bitrate = 15360bps
Main_Network.node[*].nic.mac.contentionWindow = 20
Main_Network.node[*].nic.mac.txPower = 100mW  # [mW]
Main_Network.node[*].nic.mac.aTurnaroundTime = 0.000215s

################ NETW layer parameters ####################
Main_Network.node[*].networkType = "BaseNetwLayer"
Main_Network.node[*].netwl.stats = false
Main_Network.node[*].netwl.headerLength = 32bit

################ Mobility parameters #####################
**.mobility.initFromDisplayString = false

#Intervalo de actualización de la posición (llamado a move)
Main_Network.node[*].mobility.updateInterval = 1 s
Main_Network.node[*].mobility.initFromDisplayString = false
Main_Network.node[*].mobility.angle = 0deg
#Rectangle Mobility
#Main_Network.node[0].mobility.startPosition = 3.4
#Main_Network.node[1].mobility.startPosition = 3.395
#Main_Network.node[2].mobility.startPosition = 3.390
#Main_Network.node[3].mobility.startPosition = 3.385

Main_Network.node[*].mobility.initialY = 400 m
Main_Network.node[*].mobility.initialZ = 0 m

Main_Network.node[0].mobility.initialX = 45 m
Main_Network.node[1].mobility.initialX = 40 m
Main_Network.node[2].mobility.initialX = 35 m
Main_Network.node[3].mobility.initialX = 30 m
Main_Network.node[4].mobility.initialX = 25 m
Main_Network.node[5].mobility.initialX = 20 m
Main_Network.node[6].mobility.initialX = 15 m
Main_Network.node[7].mobility.initialX = 10 m
Main_Network.node[8].mobility.initialX = 5 m
Main_Network.node[9].mobility.initialX = 0 m


#Other parameters
#Distancia a la meta
#Tiempo objetivo para llegar a la meta
Main_Network.node[*].mobility.totalTime = 586 s
#Variabilidad de la velocidad objetivo del lider
Main_Network.node[*].mobility.variability = 0.1
Main_Network.node[*].mobility.acceleration = 0
Main_Network.node[0].mobility.leader = true
Main_Network.node[*].mobility.leader = false
#Main_Network.node[2].mobility.leader = false
#Main_Network.node[3].mobility.leader = false
Main_Network.node[*].totalDist = 2400 m


################ Platoon parameters ########################

#Alpha values of CACC
Main_Network.node[*].appl.alpha1 = 0.5
Main_Network.node[*].appl.alpha2 = 0.5
Main_Network.node[*].appl.alpha3 = 0.3
Main_Network.node[*].appl.alpha4 = 0.1
Main_Network.node[*].appl.alpha5 = 0.04

#Alpha values of CACC with lag
Main_Network.node[*].appl.alphaLag = 0.8

#Parámetros que se introducen segun el escenario
Main_Network.node[*].appl.mean_error = 0.4125
Main_Network.node[*].appl.std_error = 2.39
Main_Network.node[*].appl.mean_vel_obj = 14.2484

#Value for spacing error
Main_Network.node[*].appl.lenghtVehicle = 2
Main_Network.node[*].appl.spacing = 2

#Interval for sending position updates
Main_Network.node[*].appl.beaconInterval = 0.1 s

#Interval for running the platton 
Main_Network.node[*].appl.platoonInterval = 1 s



################ Application parameters #####################
Main_Network.node[*].applicationType = "CustomAppLayer"
Main_Network.node[*].appl.debug = false
Main_Network.node[*].appl.headerLength = 512bit
Main_Network.node[*].appl.burstSize = 1 

############### Battery parameters ############################
Main_Network.node[*].battery.nominal = 99999mAh
Main_Network.node[*].battery.capacity = 99999mAh
Main_Network.node[*].battery.voltage = 3.3V
Main_Network.node[*].battery.resolution = 10s
Main_Network.node[*].battery.publishDelta = 0.1
Main_Network.node[*].battery.publishTime = 0
Main_Network.node[*].battery.numDevices = 1  # only the PHY module uses energy from the battery
Main_Network.node[*].batteryStats.debug = false
Main_Network.node[*].batteryStats.detail = false
Main_Network.node[*].batteryStats.timeSeries = false

############## Beaconing parameters ###########################
Main_Network.node[*].appl.beaconing = false

############## GPS error parameters ###########################
Main_Network.node[*].appl.GPS_error = false

############## RRT parameters ###########################
Main_Network.node[*].appl.RTT_on = false

############## Incluir MultiSpeed ###########################
Main_Network.node[*].mobility.MultiSpeed = false

############## Incluir Umbral ###########################
Main_Network.node[*].appl.Thr_Ac = 0

##### Configurations ######

#########################################################################################
# Escenarios realizados para estudiar performances del platoon con error humano incluido#
#########################################################################################

# Escenario para observar la inclusion del error en la medicion de la posicion obtenida por el GPS
[Config GPS-error] 

# Definir valores para el error humano
Main_Network.node[*].appl.mean_error = 0.214   #${ mean= -0.1934, -0.1934, 0.214, 0.214, 0.429, 0.429}  #Para velocidades 10,15 y 18 el error humano es diferente 
Main_Network.node[*].appl.std_error = 0.46  #${ std= 0.432, 0.432, 0.46, 0.46, 0.889, 0.889 ! mean}  
Main_Network.node[*].appl.mean_vel_obj = 4.1667   #${ vel= 2.77, 2.77, 4.1667, 4.1667, 5, 5 ! mean}

# Definir valores de la velocidad segun corresponda para cada iteración 
Main_Network.node[*].mobility.speed = 4.32 mps    #${speed= 3.3 mps, 3.7 mps, 4.32 mps, 4.63 mps, 5.36 mps , 5.84mps ! mean}       
Main_Network.node[*].mobility.variability = 0.039   #${varia= 0.012,  0.243, 0.039, 0.097, 0.095, 0.033 ! mean}  #Variabilidad como valor porcentual de la velocidad objetivo

# Valores para el erro del GPS, se obtuvieron al comparar con distribucioón de estudio empírico 
Main_Network.node[*].appl.GPS_error = true # Activa el error de GPS en el calculo del CACC
Main_Network.node[*].appl.position_error_a = 5  # Valor mas común en el error
Main_Network.node[*].appl.position_error_b = 1.5 # Define la desviación de los datos

# Beaconing
Main_Network.node[*].appl.beaconing = true
Main_Network.numNodes = 4

# Potencia Suficiente
Main_Network.connectionManager.pMax = 0.003mW
Main_Network.node[*].nic.phy.maxTXPower = 0.003mW
Main_Network.node[*].nic.mac.txPower = 0.003mW

#repeat = 10

# Escenario para observar la inclusion del error humano sin error en el GPS
[Config SinGPS-error] 

# Definir valores para el error humano
Main_Network.node[*].appl.mean_error = 0.214   #${ mean= -0.1934, -0.1934, 0.214, 0.214, 0.429, 0.429}  #Para velocidades 10,15 y 18 el error humano es diferente 
Main_Network.node[*].appl.std_error = 0.46  #${ std= 0.432, 0.432, 0.46, 0.46, 0.889, 0.889 ! mean}  
Main_Network.node[*].appl.mean_vel_obj = 4.1667   #${ vel= 2.77, 2.77, 4.1667, 4.1667, 5, 5 ! mean}

# Definir valores de la velocidad segun corresponda para cada iteración 
Main_Network.node[*].mobility.speed = 4.32 mps    #${speed= 3.3 mps, 3.7 mps, 4.32 mps, 4.63 mps, 5.36 mps , 5.84mps ! mean}       
Main_Network.node[*].mobility.variability = 0.039   #${varia= 0.012,  0.243, 0.039, 0.097, 0.095, 0.033 ! mean}  #Variabilidad como valor porcentual de la velocidad objetivo

# Beaconing
Main_Network.node[*].appl.beaconing = true
Main_Network.numNodes = 4

# Potencia Suficiente
Main_Network.connectionManager.pMax = 0.003mW
Main_Network.node[*].nic.phy.maxTXPower = 0.003mW
Main_Network.node[*].nic.mac.txPower = 0.003mW

#repeat = 10

# Escenario que implementa el calculo de la distancia a travez de RTT sin beaconing activado
# Aún no Funciona
[Config RTT-Sin_Beaconing] 

# Definir valores para el error
Main_Network.node[*].appl.mean_error = 0.214   #${ mean= -0.1934, -0.1934, 0.214, 0.214, 0.429, 0.429}  #Para velocidades 10,15 y 18 el error humano es diferente 
Main_Network.node[*].appl.std_error = 0.46  #${ std= 0.432, 0.432, 0.46, 0.46, 0.889, 0.889 ! mean}  
Main_Network.node[*].appl.mean_vel_obj = 4.1667   #${ vel= 2.77, 2.77, 4.1667, 4.1667, 5, 5 ! mean}

# Definir valores de la velocidad segun corresponda para cada iteración 
Main_Network.node[*].mobility.speed = 4.32 mps    #${speed= 3.3 mps, 3.7 mps, 4.32 mps, 4.63 mps, 5.36 mps , 5.84mps ! mean}       
#Main_Network.node[*].mobility.variability = 0.039   #${varia= 0.012,  0.243, 0.039, 0.097, 0.095, 0.033 ! mean}  #Variabilidad como valor porcentual de la velocidad objetivo

#Activar RTT
Main_Network.node[*].appl.RTT_on = true

# Beaconing
Main_Network.node[*].appl.beaconing = false
Main_Network.numNodes = 4

# Potencia Suficiente
Main_Network.connectionManager.pMax = 1mW
Main_Network.node[*].nic.phy.maxTXPower = 1mW
Main_Network.node[*].nic.mac.txPower = 1mW

#Interval for sending position updates
Main_Network.node[*].appl.beaconInterval = 0.01 s

#Interval for running the platton 
Main_Network.node[*].appl.platoonInterval = 0.05 s

#repeat = 10

# Escenario que implementa el calculo de la distancia a travez de RTT con beaconing activado
# RTT aún no funciona
[Config RTT-Con_Beaconing] 

# Definir valores para el error
Main_Network.node[*].appl.mean_error = 0.214   #${ mean= -0.1934, -0.1934, 0.214, 0.214, 0.429, 0.429}  #Para velocidades 10,15 y 18 el error humano es diferente 
Main_Network.node[*].appl.std_error = 0.46  #${ std= 0.432, 0.432, 0.46, 0.46, 0.889, 0.889 ! mean}  
Main_Network.node[*].appl.mean_vel_obj = 4.1667   #${ vel= 2.77, 2.77, 4.1667, 4.1667, 5, 5 ! mean}

# Definir valores de la velocidad segun corresponda para cada iteración 
Main_Network.node[*].mobility.speed = 4.32 mps    #${speed= 3.3 mps, 3.7 mps, 4.32 mps, 4.63 mps, 5.36 mps , 5.84mps ! mean}       
#Main_Network.node[*].mobility.variability = 0.039   #${varia= 0.012,  0.243, 0.039, 0.097, 0.095, 0.033 ! mean}  #Variabilidad como valor porcentual de la velocidad objetivo

#Activar RTT
Main_Network.node[*].appl.RTT_on = true

# Beaconing
Main_Network.node[*].appl.beaconing = true
Main_Network.numNodes = 4

# Potencia Suficiente
Main_Network.connectionManager.pMax = 0.01mW
Main_Network.node[*].nic.phy.maxTXPower = 0.01mW
Main_Network.node[*].nic.mac.txPower = 0.01mW

#Interval for sending position updates
Main_Network.node[*].appl.beaconInterval = 0.01 s

#Interval for running the platton 
Main_Network.node[*].appl.platoonInterval = 0.05 s
#repeat = 10

# Escenario para observar la inclusion del error humano sin error en el GPS incluido MultiSpeed
[Config ConGPS-error-MutiSpeed-Umbral] 

# Setear parametros de error de posición segun valor teórico
Main_Network.node[*].appl.GPS_error = true # Activa el error de GPS en el calculo del CACC
Main_Network.node[*].appl.position_error_a = 1.6 # Valor mas común en el error
Main_Network.node[*].appl.position_error_b = 2.5 # Define la desviación de los datos


# Parametros para aplicar multi-speed
Main_Network.node[*].mobility.MultiSpeed = true  
Main_Network.node[*].mobility.speedDuration = 60    #Lo que dura cada velocidad: speed, speed 2 y 3, considerar tiempo de simulación

Main_Network.node[*].mobility.speed = 2.77 mps
Main_Network.node[*].mobility.speed2 = 4.1667 mps
Main_Network.node[*].mobility.speed3 = 5 mps

# Definir valores para el error humano

# Valores obtenidos con la velocidad:   
#	LowSpeed -> mean=-0.1934, std=0.432			
#	MediumSpeed -> mean=0.214, std=0.46 
# 	HighSpeed -> mean=0.429, std=0.889 

# Valores obtenidos con error de la aceleración 
#	LowSpeed -> mean=-0.016428571, std=0.382897493			
#	MediumSpeed -> mean=-0.043688525, std=0.417270154 
# 	HighSpeed -> mean=0.009107143, std=0.3975228558

Main_Network.node[*].appl.mean_error_S1 = -0.016428571
Main_Network.node[*].appl.std_error_S1 = 0.382897493    

Main_Network.node[*].appl.mean_error_S2 = -0.043688525   
Main_Network.node[*].appl.std_error_S2 = 0.417270154    

Main_Network.node[*].appl.mean_error_S3 = 0.009107143  
Main_Network.node[*].appl.std_error_S3 = 0.3975228558


# Definir valores de la velocidad segun corresponda para cada iteración 
#Main_Network.node[*].mobility.speed = 4.32 mps    #${speed= 3.3 mps, 3.7 mps, 4.32 mps, 4.63 mps, 5.36 mps , 5.84mps ! mean}       
Main_Network.node[*].mobility.variability = 0.012  #0.001   #${varia= 0.012,  0.0243, 0.039, 0.097, 0.095, 0.033 ! mean}  #Variabilidad como valor porcentual de la velocidad objetivo
Main_Network.node[*].mobility.variability2 = 0.039   #${varia= 0.012,  0.0243, 0.039, 0.097, 0.095, 0.033 ! mean}  #Variabilidad como valor porcentual de la velocidad objetivo
Main_Network.node[*].mobility.variability3 = 0.095   #${varia= 0.012,  0.0243, 0.039, 0.097, 0.095, 0.033 ! mean}  #Variabilidad como valor porcentual de la velocidad objetivo

# Definir Valores del promedio para cada nodo en su respectiva velocidad
# Datos obtenidos de simulaciones anteriores

Main_Network.node[*].appl.MEANac_s1_n1 = 0
Main_Network.node[*].appl.MEANac_s2_n1 = 0
Main_Network.node[*].appl.MEANac_s3_n1 = 0
Main_Network.node[*].appl.MEANac_s1_n2 = 0
Main_Network.node[*].appl.MEANac_s2_n2 = 0
Main_Network.node[*].appl.MEANac_s3_n2 = 0
Main_Network.node[*].appl.MEANac_s1_n3 = 0
Main_Network.node[*].appl.MEANac_s2_n3 = 0
Main_Network.node[*].appl.MEANac_s3_n3 = 0

# Definir Valores de la desviación estandar para cada nodo en su respectiva velocidad
# Datos obtenidos de simulaciones anteriores

Main_Network.node[*].appl.STDac_s1_n1 = 0
Main_Network.node[*].appl.STDac_s2_n1 = 0
Main_Network.node[*].appl.STDac_s3_n1 = 0
Main_Network.node[*].appl.STDac_s1_n2 = 0
Main_Network.node[*].appl.STDac_s2_n2 = 0
Main_Network.node[*].appl.STDac_s3_n2 = 0
Main_Network.node[*].appl.STDac_s1_n3 = 0
Main_Network.node[*].appl.STDac_s2_n3 = 0
Main_Network.node[*].appl.STDac_s3_n3 = 0

# Definir umbral en la aceleración, deber ir entre 0 y 1 y corresponde a un porcentaje de la desviación estandar
Main_Network.node[*].appl.Thr_Ac = 0 #${STD = 0.25 , 0.33 , 0.5}
 
sim-time-limit = 540s #Este valor Debe ser seteado a partir de la operación = SpeedDuration * Numero de Repeticiones (3 para este caso) * Numero de Velocidades (3 para este caso) 


# Beaconing
Main_Network.node[*].appl.beaconing = true
Main_Network.numNodes = 4

# Potencia Suficiente
Main_Network.connectionManager.pMax = 4mW #0.5mW
Main_Network.node[*].nic.phy.maxTXPower = 4mW #0.5mW
Main_Network.node[*].nic.mac.txPower = 4mW #0.5mW

# Spacing
Main_Network.node[*].appl.spacing = 4

repeat = 30

[Config ConGPS-error-MutiSpeed-Umbral-STD] 

# Setear parametros de error de posición segun valor teórico
#Main_Network.node[*].appl.GPS_error = true # Activa el error de GPS en el calculo del CACC
#Main_Network.node[*].appl.position_error_a = 1.05  # Valor mas común en el error
#Main_Network.node[*].appl.position_error_b = 2.5 # Define la desviación de los datos

# Parametros para aplicar multi-speed
Main_Network.node[*].mobility.MultiSpeed = true  
Main_Network.node[*].mobility.speedDuration = 60    #Lo que dura cada velocidad: speed, speed 2 y 3, considerar tiempo de simulación

Main_Network.node[*].mobility.speed = 2.77 mps
Main_Network.node[*].mobility.speed2 = 4.1667 mps
Main_Network.node[*].mobility.speed3 = 5 mps

# Definir valores para el error humano

# Valores obtenidos con la velocidad:   
#	LowSpeed -> mean=-0.1934, std=0.432			
#	MediumSpeed -> mean=0.214, std=0.46 
# 	MediumSpeed -> mean=0.429, std=0.889 

# Valores obtenidos con error de la aceleración 
#	LowSpeed -> mean=-0.016428571, std=0.382897493			
#	MediumSpeed -> mean=-0.043688525, std=0.417270154 
# 	MediumSpeed -> mean=0.009107143, std=0.3975228558

Main_Network.node[*].appl.mean_error_S1 = -0.016428571
Main_Network.node[*].appl.std_error_S1 = 0.382897493    

Main_Network.node[*].appl.mean_error_S2 = -0.043688525   
Main_Network.node[*].appl.std_error_S2 = 0.417270154    

Main_Network.node[*].appl.mean_error_S3 = 0.009107143  
Main_Network.node[*].appl.std_error_S3 = 0.3975228558


# Definir valores de la velocidad segun corresponda para cada iteración 
#Main_Network.node[*].mobility.speed = 4.32 mps    #${speed= 3.3 mps, 3.7 mps, 4.32 mps, 4.63 mps, 5.36 mps , 5.84mps ! mean}       
Main_Network.node[*].mobility.variability = 0.001   #${varia= 0.012,  0.0243, 0.039, 0.097, 0.095, 0.033 ! mean}  #Variabilidad como valor porcentual de la velocidad objetivo
Main_Network.node[*].mobility.variability2 = 0.039   #${varia= 0.012,  0.0243, 0.039, 0.097, 0.095, 0.033 ! mean}  #Variabilidad como valor porcentual de la velocidad objetivo
Main_Network.node[*].mobility.variability3 = 0.095   #${varia= 0.012,  0.0243, 0.039, 0.097, 0.095, 0.033 ! mean}  #Variabilidad como valor porcentual de la velocidad objetivo

# Definir Valores del promedio para cada nodo en su respectiva velocidad
# Datos obtenidos de simulaciones anteriores, configuración Base, izquierda valor nuevo error 
#(en base a la Aceleración) , derecha antiguo en base a la velocidad de sujetos. 

Main_Network.node[*].appl.MEANac_s1_n1 = -0.0319 #-0.03210596
Main_Network.node[*].appl.MEANac_s2_n1 = 0.0388 #0.029049115
Main_Network.node[*].appl.MEANac_s3_n1 = 0.0093 #-0.00000746
Main_Network.node[*].appl.MEANac_s1_n2 = -0.0012 #-0.02542265
Main_Network.node[*].appl.MEANac_s2_n2 = 0.0591 #0.022859791
Main_Network.node[*].appl.MEANac_s3_n2 = 0.0213 #0.00499963
Main_Network.node[*].appl.MEANac_s1_n3 = -0.0036 #-0.02545595
Main_Network.node[*].appl.MEANac_s2_n3 = -0.0019 #0.021162147 	
Main_Network.node[*].appl.MEANac_s3_n3 = 0.0015 #0.012458228

# Definir Valores de la desviación estandar para cada nodo en su respectiva velocidad
# Datos obtenidos de simulaciones anteriores

Main_Network.node[*].appl.STDac_s1_n1 = 0.3871 #0.295657005
Main_Network.node[*].appl.STDac_s2_n1 = 0.3480 #0.252529212
Main_Network.node[*].appl.STDac_s3_n1 = 0.4444 #0.441132781
Main_Network.node[*].appl.STDac_s1_n2 = 0.4564 #0.199049252
Main_Network.node[*].appl.STDac_s2_n2 = 0.4483 #0.186657131
Main_Network.node[*].appl.STDac_s3_n2 = 0.4703 #0.276308827
Main_Network.node[*].appl.STDac_s1_n3 = 0.4548 #0.170798765
Main_Network.node[*].appl.STDac_s2_n3 = 0.4280 #0.170562699
Main_Network.node[*].appl.STDac_s3_n3 = 0.3814 #0.216995667

# Definir umbral en la aceleración, deber ir entre 0 y 1 y corresponde a un porcentaje de la desviación estandar
Main_Network.node[*].appl.Thr_Ac = ${STD = 0.25 , 0.33 , 0.5}
 
sim-time-limit = 540s #Este valor Debe ser seteado a partir de la operación = SpeedDuration * Numero de Repeticiones (3 para este caso) * Numero de Velocidades (3 para este caso) 


# Beaconing
Main_Network.node[*].appl.beaconing = true
Main_Network.numNodes = 4

# Potencia Suficiente
Main_Network.connectionManager.pMax = 4mW #2.5mW
Main_Network.node[*].nic.phy.maxTXPower = 4mW #2.5mW
Main_Network.node[*].nic.mac.txPower = 4mW #2.5mW

# Spacing
Main_Network.node[*].appl.spacing = 4

#repeat = 30

[Config SinGPS-error-Umbral-Base-PlatoonSize ] 

# Parametros para aplicar multi-speed
Main_Network.node[*].mobility.MultiSpeed = true 
Main_Network.node[*].mobility.speedDuration = 540    #Lo que dura cada velocidad: speed, speed 2 y 3, considerar tiempo de simulación

Main_Network.node[*].mobility.speed = 4.1667 mps #2.77 mps
Main_Network.node[*].mobility.speed2 = 4.1667 mps
Main_Network.node[*].mobility.speed3 = 4.1667 mps # 5 mps

Main_Network.node[*].appl.mean_error_S1 = 0.043688525
Main_Network.node[*].appl.std_error_S1 = 0.417270154    

#Main_Network.node[*].appl.mean_error_S2 = -0.043688525   
#Main_Network.node[*].appl.std_error_S2 = 0.417270154    

#Main_Network.node[*].appl.mean_error_S3 = 0.043688525  
#Main_Network.node[*].appl.std_error_S3 = 0.417270154


# Definir valores de la velocidad segun corresponda para cada iteración 
#Main_Network.node[*].mobility.speed = 4.32 mps    #${speed= 3.3 mps, 3.7 mps, 4.32 mps, 4.63 mps, 5.36 mps , 5.84mps ! mean}       
Main_Network.node[*].mobility.variability = 0.039 #0.001   #${varia= 0.012,  0.0243, 0.039, 0.097, 0.095, 0.033 ! mean}  #Variabilidad como valor porcentual de la velocidad objetivo
Main_Network.node[*].mobility.variability2 = 0.039   #${varia= 0.012,  0.0243, 0.039, 0.097, 0.095, 0.033 ! mean}  #Variabilidad como valor porcentual de la velocidad objetivo
Main_Network.node[*].mobility.variability3 = 0.039 # 0.095   #${varia= 0.012,  0.0243, 0.039, 0.097, 0.095, 0.033 ! mean}  #Variabilidad como valor porcentual de la velocidad objetivo

# Definir Valores del promedio para cada nodo en su respectiva velocidad
# Datos obtenidos de simulaciones anteriores

Main_Network.node[*].appl.MEANac_n1 = 0 # 0.0388 #-0.03210596
Main_Network.node[*].appl.MEANac_n2 = 0 # 0.0388 #0.029049115
Main_Network.node[*].appl.MEANac_n3 = 0 # 0.0388 #-0.00000746
Main_Network.node[*].appl.MEANac_n4 = 0 # 0.0591 #-0.02542265
Main_Network.node[*].appl.MEANac_n5 = 0 # 0.0591 #0.022859791
Main_Network.node[*].appl.MEANac_n6 = 0 #0.0591 #0.00499963
Main_Network.node[*].appl.MEANac_n7 = 0 #-0.0019 #-0.02545595
Main_Network.node[*].appl.MEANac_n8 = 0 #-0.0019 #0.021162147 	
Main_Network.node[*].appl.MEANac_n9 = 0 #-0.0019 #0.012458228

# Definir Valores de la desviación estandar para cada nodo en su respectiva velocidad
# Datos obtenidos de simulaciones anteriores

Main_Network.node[*].appl.STDac_n1 = 0 #0.3480 #0.295657005
Main_Network.node[*].appl.STDac_n2 = 0 #0.3480 #0.252529212
Main_Network.node[*].appl.STDac_n3 = 0 #0.3480 #0.441132781
Main_Network.node[*].appl.STDac_n4 = 0 #0.4483 #0.199049252
Main_Network.node[*].appl.STDac_n5 = 0 #0.4483 #0.186657131
Main_Network.node[*].appl.STDac_n6 = 0 #0.4703 #0.276308827
Main_Network.node[*].appl.STDac_n7 = 0 #0.4548 #0.170798765
Main_Network.node[*].appl.STDac_n8 = 0 #0.4280 #0.170562699
Main_Network.node[*].appl.STDac_n9 = 0 #0.3814 #0.216995667

# Definir umbral en la aceleración, deber ir entre 0 y 1 y corresponde a un porcentaje de la desviación estandar
Main_Network.node[*].appl.Thr_Ac = 0
 
sim-time-limit = 540s #Este valor Debe ser seteado a partir de la operación = SpeedDuration * Numero de Repeticiones (3 para este caso) * Numero de Velocidades (3 para este caso) 


# Beaconing
Main_Network.node[*].appl.beaconing = true
Main_Network.numNodes = 10

# Potencia Suficiente
Main_Network.connectionManager.pMax =2mW #0.5mW
Main_Network.node[*].nic.phy.maxTXPower = 2mW #0.5mW
Main_Network.node[*].nic.mac.txPower = 2mW #0.5mW

# Spacing
Main_Network.node[*].appl.spacing = 4

#repeat = 10

[Config SinGPS-error-Umbral-STD033-PlatoonSize ] 

# Parametros para aplicar multi-speed
Main_Network.node[*].mobility.MultiSpeed = true 
Main_Network.node[*].mobility.speedDuration = 540    #Lo que dura cada velocidad: speed, speed 2 y 3, considerar tiempo de simulación

Main_Network.node[*].mobility.speed = 4.1667 mps #2.77 mps
Main_Network.node[*].mobility.speed2 = 4.1667 mps
Main_Network.node[*].mobility.speed3 = 4.1667 mps # 5 mps

Main_Network.node[*].appl.mean_error_S1 = 0.043688525
Main_Network.node[*].appl.std_error_S1 = 0.417270154    

#Main_Network.node[*].appl.mean_error_S2 = -0.043688525   
#Main_Network.node[*].appl.std_error_S2 = 0.417270154    

#Main_Network.node[*].appl.mean_error_S3 = 0.043688525  
#Main_Network.node[*].appl.std_error_S3 = 0.417270154


# Definir valores de la velocidad segun corresponda para cada iteración 
#Main_Network.node[*].mobility.speed = 4.32 mps    #${speed= 3.3 mps, 3.7 mps, 4.32 mps, 4.63 mps, 5.36 mps , 5.84mps ! mean}       
Main_Network.node[*].mobility.variability = 0.039 #0.001   #${varia= 0.012,  0.0243, 0.039, 0.097, 0.095, 0.033 ! mean}  #Variabilidad como valor porcentual de la velocidad objetivo
Main_Network.node[*].mobility.variability2 = 0.039   #${varia= 0.012,  0.0243, 0.039, 0.097, 0.095, 0.033 ! mean}  #Variabilidad como valor porcentual de la velocidad objetivo
Main_Network.node[*].mobility.variability3 = 0.039 # 0.095   #${varia= 0.012,  0.0243, 0.039, 0.097, 0.095, 0.033 ! mean}  #Variabilidad como valor porcentual de la velocidad objetivo

# Definir Valores del promedio para cada nodo en su respectiva velocidad
# Datos obtenidos de simulaciones anteriores

Main_Network.node[*].appl.MEANac_n1 = 0.0207 # 0.0388 #-0.03210596
Main_Network.node[*].appl.MEANac_n2 = 0.0479 # 0.0388 #0.029049115
Main_Network.node[*].appl.MEANac_n3 = 0.0548 # 0.0388 #-0.00000746
Main_Network.node[*].appl.MEANac_n4 = 0.0074 # 0.0591 #-0.02542265
Main_Network.node[*].appl.MEANac_n5 = 0.0761 # 0.0591 #0.022859791
Main_Network.node[*].appl.MEANac_n6 = 0.0513 #0.0591 #0.00499963
Main_Network.node[*].appl.MEANac_n7 = 0.0330 #-0.0019 #-0.02545595
Main_Network.node[*].appl.MEANac_n8 = 0.0391 #-0.0019 #0.021162147 	
Main_Network.node[*].appl.MEANac_n9 = 0.0602 #-0.0019 #0.012458228

# Definir Valores de la desviación estandar para cada nodo en su respectiva velocidad
# Datos obtenidos de simulaciones anteriores

Main_Network.node[*].appl.STDac_n1 = 0.3965 #0.3480 #0.295657005
Main_Network.node[*].appl.STDac_n2 = 0.4387 #0.3480 #0.252529212
Main_Network.node[*].appl.STDac_n3 = 0.4361 #0.3480 #0.441132781
Main_Network.node[*].appl.STDac_n4 = 0.4015 #0.4483 #0.199049252
Main_Network.node[*].appl.STDac_n5 = 0.4136 #0.4483 #0.186657131
Main_Network.node[*].appl.STDac_n6 = 0.4225 #0.4703 #0.276308827
Main_Network.node[*].appl.STDac_n7 = 0.3732 #0.4548 #0.170798765
Main_Network.node[*].appl.STDac_n8 = 0.4056 #0.4280 #0.170562699
Main_Network.node[*].appl.STDac_n9 = 0.4253 #0.3814 #0.216995667

# Definir umbral en la aceleración, deber ir entre 0 y 1 y corresponde a un porcentaje de la desviación estandar
Main_Network.node[*].appl.Thr_Ac = 0.33
 
sim-time-limit = 540s #Este valor Debe ser seteado a partir de la operación = SpeedDuration * Numero de Repeticiones (3 para este caso) * Numero de Velocidades (3 para este caso) 


# Beaconing
Main_Network.node[*].appl.beaconing = true
Main_Network.numNodes = ${4,5,6,7,8,9,10}

# Potencia Suficiente
Main_Network.connectionManager.pMax = 4mW #0.5mW
Main_Network.node[*].nic.phy.maxTXPower = 4mW #0.5mW
Main_Network.node[*].nic.mac.txPower = 4mW #0.5mW

# Spacing
Main_Network.node[*].appl.spacing = 4

repeat = 10
